Version 4.1
SHEET 1 4008 1444
WIRE 1376 256 736 256
WIRE 1536 256 1376 256
WIRE 2048 256 1536 256
WIRE 2208 256 2048 256
WIRE 2688 256 2208 256
WIRE 736 288 736 256
WIRE 1536 368 1536 256
WIRE 1536 368 1472 368
WIRE 2208 368 2208 256
WIRE 2208 368 2144 368
WIRE 736 384 736 368
WIRE 1472 400 1472 368
WIRE 1536 400 1536 368
WIRE 2144 400 2144 368
WIRE 2208 400 2208 368
WIRE 1472 512 1472 464
WIRE 1536 512 1536 480
WIRE 1536 512 1472 512
WIRE 2144 512 2144 464
WIRE 2208 512 2208 480
WIRE 2208 512 2144 512
WIRE 2688 624 2688 256
WIRE 896 688 784 688
WIRE 992 688 976 688
WIRE 1024 688 992 688
WIRE 1104 688 1104 608
WIRE 1104 688 1088 688
WIRE 1216 688 1104 688
WIRE 1312 688 1312 656
WIRE 1312 688 1296 688
WIRE 1376 688 1376 256
WIRE 1408 688 1376 688
WIRE 1536 688 1536 512
WIRE 1536 688 1488 688
WIRE 1648 688 1648 656
WIRE 1648 688 1536 688
WIRE 1728 688 1712 688
WIRE 1808 688 1808 576
WIRE 1808 688 1792 688
WIRE 1888 688 1808 688
WIRE 1984 688 1968 688
WIRE 2048 688 2048 256
WIRE 2080 688 2048 688
WIRE 2208 688 2208 512
WIRE 2208 688 2160 688
WIRE 2352 688 2352 656
WIRE 2352 688 2208 688
WIRE 2432 688 2352 688
WIRE 2528 688 2496 688
WIRE 2640 688 2528 688
WIRE 1376 720 1376 688
WIRE 1408 720 1376 720
WIRE 1616 720 1488 720
WIRE 2048 720 2048 688
WIRE 2080 720 2048 720
WIRE 2288 720 2160 720
WIRE 1552 752 1488 752
WIRE 2224 752 2160 752
WIRE 1552 768 1552 752
WIRE 1616 768 1616 720
WIRE 2224 768 2224 752
WIRE 2288 768 2288 720
WIRE 2688 768 2688 720
WIRE 2832 768 2688 768
WIRE 2944 768 2896 768
WIRE 1312 784 1312 688
WIRE 1408 784 1312 784
WIRE 1520 784 1488 784
WIRE 1984 784 1984 688
WIRE 2080 784 1984 784
WIRE 2192 784 2160 784
WIRE 2688 784 2688 768
WIRE 2688 784 2608 784
WIRE 784 816 784 688
WIRE 1312 816 1312 784
WIRE 1984 816 1984 784
WIRE 2688 816 2688 784
WIRE 2608 832 2608 784
WIRE 2944 832 2944 768
WIRE 2528 848 2528 688
WIRE 1312 912 1312 880
WIRE 1984 912 1984 880
WIRE 1488 928 1408 928
WIRE 1520 928 1520 784
WIRE 1520 928 1488 928
WIRE 2160 928 2080 928
WIRE 2192 928 2192 784
WIRE 2192 928 2160 928
WIRE 1488 944 1488 928
WIRE 2160 944 2160 928
WIRE 784 1024 784 896
WIRE 1056 1024 1056 768
WIRE 1056 1024 784 1024
WIRE 1216 1024 1056 1024
WIRE 1312 1024 1312 992
WIRE 1312 1024 1216 1024
WIRE 1488 1024 1488 1008
WIRE 1488 1024 1312 1024
WIRE 1616 1024 1616 768
WIRE 1616 1024 1488 1024
WIRE 1760 1024 1760 768
WIRE 1760 1024 1616 1024
WIRE 1984 1024 1984 992
WIRE 1984 1024 1760 1024
WIRE 2160 1024 2160 1008
WIRE 2160 1024 1984 1024
WIRE 2288 1024 2288 768
WIRE 2288 1024 2160 1024
WIRE 2528 1024 2528 928
WIRE 2528 1024 2288 1024
WIRE 2608 1024 2608 896
WIRE 2608 1024 2528 1024
WIRE 2688 1024 2688 896
WIRE 2688 1024 2608 1024
WIRE 2944 1024 2944 912
WIRE 2944 1024 2688 1024
WIRE 1216 1040 1216 1024
WIRE 1408 1056 1408 928
WIRE 2080 1056 2080 928
WIRE 1408 1168 1408 1136
WIRE 1408 1168 1280 1168
WIRE 2080 1168 2080 1136
WIRE 2080 1168 1408 1168
WIRE 1280 1200 1280 1168
WIRE 1280 1296 1280 1280
FLAG 736 384 0
FLAG 1216 1040 0
FLAG 1808 576 Y2load
FLAG 1104 608 Y1load
FLAG 1648 656 Stage1-out
IOPIN 1648 656 Out
FLAG 992 688 Stage1-in
IOPIN 992 688 In
FLAG 1280 1296 0
FLAG 2352 656 Stage2-out
IOPIN 2352 656 Out
SYMBOL voltage 736 272 R0
WINDOW 123 0 0 Left 0
WINDOW 39 0 0 Left 0
SYMATTR InstName V7
SYMATTR Value 5
SYMBOL voltage 784 800 R0
WINDOW 123 -59 -64 Left 2
WINDOW 39 -69 -39 Left 2
SYMATTR Value2 AC 0.00035566
SYMATTR SpiceLine Rser=1500
SYMATTR InstName V8
SYMATTR Value ""
SYMBOL cap 2496 672 R90
WINDOW 0 0 32 VBottom 2
WINDOW 3 32 32 VTop 2
SYMATTR InstName C4
SYMATTR Value 150p
SYMBOL res 2544 832 M0
SYMATTR InstName R1
SYMATTR Value 100k
SYMBOL njf 2640 624 R0
SYMATTR InstName J1
SYMATTR Value 2N3819
SYMBOL res 2672 800 R0
SYMATTR InstName R2
SYMATTR Value 33k
SYMBOL cap 2896 752 R90
WINDOW 0 0 32 VBottom 2
WINDOW 3 32 32 VTop 2
SYMATTR InstName C3
SYMATTR Value 1µ
SYMBOL cap 2592 896 M180
WINDOW 0 24 56 Left 2
WINDOW 3 24 8 Left 2
SYMATTR InstName C5
SYMATTR Value 10n
SYMBOL res 2928 816 R0
SYMATTR InstName R4
SYMATTR Value 1000k
SYMBOL res 1296 896 R0
SYMATTR InstName R6
SYMATTR Value 820
SYMBOL cap 1296 816 R0
SYMATTR InstName C6
SYMATTR Value 100p
SYMBOL res 1312 672 R90
WINDOW 0 0 56 VBottom 2
WINDOW 3 32 56 VTop 2
SYMATTR InstName R7
SYMATTR Value 1
SYMBOL res 992 672 R90
WINDOW 0 0 56 VBottom 2
WINDOW 3 32 56 VTop 2
SYMATTR InstName R8
SYMATTR Value 820
SYMBOL RF\ signal\ amps\\MC1350_from_schematic 1440 736 R0
SYMATTR InstName X1
SYMBOL cap 1616 752 R90
WINDOW 0 0 32 VBottom 2
WINDOW 3 32 32 VTop 2
SYMATTR InstName C7
SYMATTR Value 10n
SYMBOL ind 1520 384 R0
SYMATTR InstName L1
SYMATTR Value 4.7µH
SYMBOL cap 1488 464 R180
WINDOW 0 24 56 Left 2
WINDOW 3 24 8 Left 2
SYMATTR InstName C8
SYMATTR Value 33p
SYMBOL cap 1504 1008 R180
WINDOW 0 24 56 Left 2
WINDOW 3 24 8 Left 2
SYMATTR InstName C9
SYMATTR Value 1µ
SYMBOL res 1392 1040 R0
SYMATTR InstName R9
SYMATTR Value 5.1k
SYMBOL voltage 1280 1184 R0
WINDOW 123 0 0 Left 0
WINDOW 39 0 0 Left 0
SYMATTR InstName V1
SYMATTR Value {Vagc}
SYMBOL Ceramic\ Filters\\Ceramic_Filter_v1_10704_kHz_600_Ohms 1760 720 R0
SYMATTR InstName X3
SYMBOL Ceramic\ Filters\\Ceramic_Filter_v1_10704_kHz_600_Ohms 1056 720 R0
SYMATTR InstName X5
SYMBOL RF\ signal\ amps\\MC1350_from_schematic 2112 736 R0
SYMATTR InstName X2
SYMBOL cap 2288 752 R90
WINDOW 0 0 32 VBottom 2
WINDOW 3 32 32 VTop 2
SYMATTR InstName C12
SYMATTR Value 10n
SYMBOL ind 2192 384 R0
SYMATTR InstName L2
SYMATTR Value 4.7µH
SYMBOL cap 2160 464 R180
WINDOW 0 24 56 Left 2
WINDOW 3 24 8 Left 2
SYMATTR InstName C13
SYMATTR Value 39p
SYMBOL cap 2176 1008 R180
WINDOW 0 24 56 Left 2
WINDOW 3 24 8 Left 2
SYMATTR InstName C14
SYMATTR Value 1µ
SYMBOL res 2064 1040 R0
SYMATTR InstName R3
SYMATTR Value 5.1k
SYMBOL res 1984 672 R90
WINDOW 0 0 56 VBottom 2
WINDOW 3 32 56 VTop 2
SYMATTR InstName R5
SYMATTR Value 1
SYMBOL res 1968 896 R0
SYMATTR InstName R10
SYMATTR Value 820
SYMBOL cap 1968 816 R0
SYMATTR InstName C2
SYMATTR Value 100p
SYMBOL cap 1712 672 R90
WINDOW 0 0 32 VBottom 2
WINDOW 3 32 32 VTop 2
SYMATTR InstName C1
SYMATTR Value 10p
TEXT 672 168 Left 2 !.ac lin 251 10650000 10750000
TEXT 1696 192 Left 2 !.param Vagc=2.7
