Version 4.1
SHEET 1 1112 680
WIRE 112 -240 -608 -240
WIRE 112 -96 112 -240
WIRE -224 -32 -400 -32
WIRE -48 -32 -160 -32
WIRE 64 -32 -48 -32
WIRE -608 0 -608 -240
WIRE 272 32 208 32
WIRE 464 32 336 32
WIRE 480 32 464 32
WIRE 112 48 112 0
WIRE 208 48 208 32
WIRE 208 48 112 48
WIRE -400 80 -400 -32
WIRE -48 80 -48 -32
WIRE 112 128 112 48
WIRE 208 128 208 48
WIRE 464 144 464 32
WIRE -608 320 -608 80
WIRE -400 320 -400 176
WIRE -400 320 -608 320
WIRE -48 320 -48 160
WIRE -48 320 -400 320
WIRE 112 320 112 208
WIRE 112 320 -48 320
WIRE 176 320 112 320
WIRE 208 320 208 192
WIRE 208 320 176 320
WIRE 464 320 464 224
WIRE 464 320 208 320
WIRE 176 368 176 320
FLAG 176 368 0
SYMBOL njf 64 -96 R0
SYMATTR InstName J1
SYMBOL res 96 112 R0
SYMATTR InstName R1
SYMATTR Value 33k
SYMBOL res -64 64 R0
SYMATTR InstName R2
SYMATTR Value 100k
SYMBOL cap 192 128 R0
SYMATTR InstName C1
SYMATTR Value 10n
SYMBOL cap 336 16 R90
WINDOW 0 0 32 VBottom 2
WINDOW 3 32 32 VTop 2
SYMATTR InstName C2
SYMATTR Value .1µ
SYMBOL cap -160 -48 R90
WINDOW 0 0 32 VBottom 2
WINDOW 3 32 32 VTop 2
SYMATTR InstName C3
SYMATTR Value 100p
SYMBOL voltage -608 -16 R0
WINDOW 123 0 0 Left 0
WINDOW 39 0 0 Left 0
SYMATTR InstName V1
SYMATTR Value 5
SYMBOL Test\ Helpers\\10.7MHz_AM_1kHz -400 128 R0
SYMATTR InstName X2
SYMBOL res 448 128 R0
SYMATTR InstName R3
SYMATTR Value 1k
TEXT -568 -336 Left 2 !.tran 10m
